!!!!!!!!!!!!!!!!!!!!!!!!!!!!!!!!!!!!!!!!!!!!!!!!!!
!!! Detailed Mechanism for Hydrogen Combustion !!!
!!! Kee RJ, Grcar JF, Smooke MD, Miller JA.	!!! 
!!! A fortran program for modelling steady	!!! 
!!! laminar one dimensional premixed flames.	!!!  
!!! Sandia National Laboratories; 1988.		!!!
!!!!!!!!!!!!!!!!!!!!!!!!!!!!!!!!!!!!!!!!!!!!!!!!!!

ELEMENTS
 H  O  AR 
END

SPECIES
 H2  H  O2  O  OH  HO2  H2O2  H2O   AR
END

REACTIONS
H2+O2=2OH	1.7E+13	0.0	47780.
H2+OH=H2O+H     1.17E+09     1.30   3626
H+O2=O+OH       5.13E+16    -0.816   16507
O+H2=H+OH       1.8E+10     1.0   8826 
H+O2+M=HO2+M 2.1E+18   -1.0    0.00
  H2/3.3/ H2O/21.0/ O2/0.0/
H+O2+O2=HO2+O2	6.7e+19	-1.42	0
HO2+OH=H2O+O2   5.0E+13    0.00    1000
HO2+H=OH+OH     2.5E+14    0.00    1900 
HO2+O=O2+OH     4.8E+13    0.00    1000.00     
2OH=O+H2O	6.0e+8	1.3	0
H2+M=H+H+M     2.23E+12    0.5   92600
  H2/3.0/ H2O/6.0/ H/2.0/
O2+M=O+O+M	1.85e+11	0.5	95560
H+OH+M=H2O+M    7.50E+23    -2.60   0.00
  H2O/20.0/ 
HO2+H=H2+O2     2.5E+13    0.00    700 
HO2+HO2=H2O2+O2 2.0E+12    0.00    0.0
H2O2+M=OH+OH+M	1.3E+17	0.00    45500
H2O2+H=HO2+H2   1.6E+12    0.00    3800
H2O2+OH=HO2+H2O 1.00E+13    0.00   1800.00
END
